examples/feeders/CERTEL/CER3_2_34/Segmentos_CER3_2_34.dss
New Line.it_20_2411_0 phases=2 bus1=BT_20_2411.1.2 bus2=BT_23880_1.1.2 LineCode=125 length=0.001 units=km 
New Line.it_20_2411_36001 phases=1 bus1=BT_23880_1.2 bus2=BT_50371_1.2 LineCode=201 length=0.054 units=km 
New Line.it_20_2411_36002 phases=1 bus1=BT_23880_1.1 bus2=BT_23881_1.1 LineCode=201 length=0.134 units=km 
New Line.it_20_2411_36003 phases=1 bus1=BT_23881_1.1 bus2=BT_23882_1.1 LineCode=201 length=0.163 units=km 
New Line.it_20_4805_0 phases=2 bus1=BT_20_4805.1.2 bus2=BT_106864_1.1.2 LineCode=232 length=0.001 units=km 
New Line.it_32_10126_0 phases=2 bus1=BT_32_10126.1.2 bus2=BT_142035_1.1.2 LineCode=130 length=0.001 units=km 
New Line.it_32_10236_0 phases=2 bus1=BT_32_10236.1.2 bus2=BT_16980_1.1.2 LineCode=130 length=0.001 units=km 
New Line.it_32_10236_63878 phases=1 bus1=BT_16978_1.1 bus2=BT_16977_1.1 LineCode=149 length=0.073 units=km 
New Line.it_32_10236_63879 phases=1 bus1=BT_16979_1.1 bus2=BT_16978_1.1 LineCode=149 length=0.056 units=km 
New Line.it_32_10236_63880 phases=1 bus1=BT_16980_1.1 bus2=BT_16979_1.1 LineCode=149 length=0.061 units=km 
New Line.it_32_10236_63882 phases=1 bus1=BT_16980_1.1 bus2=BT_16981_1.1 LineCode=149 length=0.069 units=km 
New Line.it_32_10514_0 phases=3 bus1=BT_32_10514 bus2=BT_17619_1 LineCode=122 length=0.001 units=km 
New Line.it_32_1086_0 phases=2 bus1=BT_32_1086.1.2 bus2=BT_18796_1.1.2 LineCode=125 length=0.001 units=km 
New Line.it_32_1086_14698 phases=2 bus1=BT_18796_1.1.2 bus2=BT_18797_1.1.2 LineCode=187 length=0.057 units=km 
New Line.it_32_1086_14699 phases=2 bus1=BT_18796_1.1.2 bus2=BT_18795_1.1.2 LineCode=187 length=0.083 units=km 
New Line.it_32_1086_14700 phases=1 bus1=BT_105687_1.1 bus2=BT_18798_1.1 LineCode=201 length=0.017 units=km 
New Line.it_32_1086_36142 phases=1 bus1=BT_18797_1.1 bus2=BT_105687_1.1 LineCode=201 length=0.016 units=km 
New Line.it_32_1086_36143 phases=1 bus1=BT_105687_1.1 bus2=BT_105688_1.1 LineCode=149 length=0.047 units=km 
New Line.it_32_1086_55251 phases=2 bus1=BT_18796_1.1.2 bus2=BT_40730_1.1.2 LineCode=187 length=0.07 units=km 
New Line.it_32_1086_55252 phases=1 bus1=BT_40730_1.1 bus2=BT_75121_1.1 LineCode=201 length=0.044 units=km 
New Line.it_32_1101_0 phases=2 bus1=BT_32_1101.1.2 bus2=BT_16983_1.1.2 LineCode=125 length=0.001 units=km 
New Line.it_32_1101_13235 phases=2 bus1=BT_16983_1.1.2 bus2=BT_16984_1.1.2 LineCode=187 length=0.074 units=km 
New Line.it_32_1101_13236 phases=2 bus1=BT_16983_1.1.2 bus2=BT_16985_1.1.2 LineCode=187 length=0.038 units=km 
New Line.it_32_1101_13237 phases=2 bus1=BT_16985_1.1.2 bus2=BT_18785_1.1.2 LineCode=187 length=0.041 units=km 
New Line.it_32_1124_0 phases=3 bus1=BT_32_1124 bus2=BT_17196_1 LineCode=185 length=0.001 units=km 
New Line.it_32_1124_13310 phases=3 bus1=BT_105059_1 bus2=BT_17199_1 LineCode=188 length=0.077 units=km 
New Line.it_32_1124_67494 phases=3 bus1=BT_117088_1 bus2=BT_17194_1 LineCode=188 length=0.129 units=km 
New Line.it_32_1124_67495 phases=3 bus1=BT_17196_1 bus2=BT_17195_1 LineCode=188 length=0.07 units=km 
New Line.it_32_1124_67496 phases=3 bus1=BT_17196_1 bus2=BT_17197_1 LineCode=188 length=0.053 units=km 
New Line.it_32_1124_67497 phases=3 bus1=BT_17197_1 bus2=BT_17198_1 LineCode=188 length=0.057 units=km 
New Line.it_32_1124_67504 phases=3 bus1=BT_17198_1 bus2=BT_105059_1 LineCode=188 length=0.06 units=km 
New Line.it_32_1124_67512 phases=3 bus1=BT_17195_1 bus2=BT_117088_1 LineCode=188 length=0.062 units=km 
New Line.it_32_1124_67514 phases=3 bus1=BT_17197_1 bus2=BT_130211_1 LineCode=188 length=0.019 units=km 
New Line.it_32_1125_0 phases=2 bus1=BT_32_1125.1.2 bus2=BT_17623_1.1.2 LineCode=125 length=0.001 units=km 
New Line.it_32_1125_67498 phases=2 bus1=BT_17622_1.1.2 bus2=BT_17621_1.1.2 LineCode=143 length=0.049 units=km 
New Line.it_32_1125_67499 phases=2 bus1=BT_17623_1.1.2 bus2=BT_17622_1.1.2 LineCode=143 length=0.048 units=km 
New Line.it_32_1125_67511 phases=2 bus1=BT_17622_1.1.2 bus2=BT_114389_1.1.2 LineCode=187 length=0.013 units=km 
New Line.it_32_1126_0 phases=2 bus1=BT_32_1126.1.2 bus2=BT_17205_1.1.2 LineCode=125 length=0.001 units=km 
New Line.it_32_1126_12561 phases=2 bus1=BT_17201_1.1.2 bus2=BT_17202_1.1.2 LineCode=187 length=0.037 units=km 
New Line.it_32_1126_12562 phases=2 bus1=BT_17208_1.1.2 bus2=BT_17209_1.1.2 LineCode=187 length=0.099 units=km 
New Line.it_32_1126_12563 phases=2 bus1=BT_17202_1.1.2 bus2=BT_17203_1.1.2 LineCode=187 length=0.058 units=km 
New Line.it_32_1126_13317 phases=2 bus1=BT_17205_1.1.2 bus2=BT_17206_1.1.2 LineCode=187 length=0.069 units=km 
New Line.it_32_1126_13318 phases=2 bus1=BT_17205_1.1.2 bus2=BT_17340_1.1.2 LineCode=187 length=0.056 units=km 
New Line.it_32_1126_13374 phases=2 bus1=BT_17206_1.1.2 bus2=BT_17207_1.1.2 LineCode=187 length=0.047 units=km 
New Line.it_32_1126_13375 phases=2 bus1=BT_17206_1.1.2 bus2=BT_17210_1.1.2 LineCode=187 length=0.101 units=km 
New Line.it_32_1126_13376 phases=2 bus1=BT_17340_1.1.2 bus2=BT_43818_1.1.2 LineCode=187 length=0.084 units=km 
New Line.it_32_1126_13705 phases=2 bus1=BT_43818_1.1.2 bus2=BT_17201_1.1.2 LineCode=187 length=0.07 units=km 
New Line.it_32_1126_13706 phases=2 bus1=BT_17207_1.1.2 bus2=BT_17208_1.1.2 LineCode=187 length=0.051 units=km 
New Line.it_32_1127_0 phases=2 bus1=BT_32_1127.1.2 bus2=BT_127339_1.1.2 LineCode=232 length=0.001 units=km 
New Line.it_32_1127_54388 phases=2 bus1=BT_127339_1.1.2 bus2=BT_17214_1.1.2 LineCode=151 length=0.021 units=km 
New Line.it_32_1127_56505 phases=2 bus1=BT_17214_1.1.2 bus2=BT_135781_1.1.2 LineCode=151 length=0.023 units=km 
New Line.it_32_1127_56506 phases=2 bus1=BT_135781_1.1.2 bus2=BT_135782_1.1.2 LineCode=151 length=0.041 units=km 
New Line.it_32_1128_0 phases=2 bus1=BT_32_1128.1.2 bus2=BT_39894_1.1.2 LineCode=125 length=0.001 units=km 
New Line.it_32_1128_37957 phases=2 bus1=BT_39894_1.1.2 bus2=BT_39895_1.1.2 LineCode=187 length=0.05 units=km 
New Line.it_32_1128_51510 phases=2 bus1=BT_39894_1.1.2 bus2=BT_43950_1.1.2 LineCode=187 length=0.069 units=km 
New Line.it_32_1128_51516 phases=2 bus1=BT_39895_1.1.2 bus2=BT_117803_1.1.2 LineCode=187 length=0.057 units=km 
New Line.it_32_1128_51517 phases=2 bus1=BT_117807_1.1.2 bus2=BT_117804_1.1.2 LineCode=187 length=0.053 units=km 
New Line.it_32_1128_51518 phases=2 bus1=BT_117803_1.1.2 bus2=BT_117807_1.1.2 LineCode=187 length=0.028 units=km 
New Line.it_32_1128_55604 phases=1 bus1=BT_43950_1.1 bus2=BT_137064_1.1 LineCode=201 length=0.099 units=km 
New Line.it_32_1129_0 phases=2 bus1=BT_32_1129.1.2 bus2=BT_19040_1.1.2 LineCode=125 length=0.001 units=km 
New Line.it_32_1129_12853 phases=2 bus1=BT_19040_1.1.2 bus2=BT_19041_1.1.2 LineCode=187 length=0.038 units=km 
New Line.it_32_1129_12854 phases=2 bus1=BT_19040_1.1.2 bus2=BT_19039_1.1.2 LineCode=187 length=0.055 units=km 
New Line.it_32_1129_12855 phases=2 bus1=BT_19039_1.1.2 bus2=BT_19038_1.1.2 LineCode=187 length=0.057 units=km 
New Line.it_32_1129_12856 phases=2 bus1=BT_19041_1.1.2 bus2=BT_99583_1.1.2 LineCode=187 length=0.048 units=km 
New Line.it_32_1129_12857 phases=2 bus1=BT_19038_1.1.2 bus2=BT_19037_1.1.2 LineCode=187 length=0.046 units=km 
New Line.it_32_1129_13242 phases=2 bus1=BT_99583_1.1.2 bus2=BT_19066_1.1.2 LineCode=187 length=0.049 units=km 
New Line.it_32_1129_13244 phases=2 bus1=BT_19066_1.1.2 bus2=BT_19067_1.1.2 LineCode=187 length=0.068 units=km 
New Line.it_32_1129_27885 phases=2 bus1=BT_19037_1.1.2 bus2=BT_114385_1.1.2 LineCode=187 length=0.08 units=km 
New Line.it_32_1130_0 phases=2 bus1=BT_32_1130.1.2 bus2=BT_19055_1.1.2 LineCode=125 length=0.001 units=km 
New Line.it_32_1130_13245 phases=2 bus1=BT_19055_1.1.2 bus2=BT_67122_1.1.2 LineCode=187 length=0.073 units=km 
New Line.it_32_1130_13246 phases=2 bus1=BT_67122_1.1.2 bus2=BT_29041_1.1.2 LineCode=187 length=0.064 units=km 
New Line.it_32_1130_13247 phases=2 bus1=BT_29041_1.1.2 bus2=BT_43819_1.1.2 LineCode=187 length=0.053 units=km 
New Line.it_32_1130_13248 phases=2 bus1=BT_75545_1.1.2 bus2=BT_19054_1.1.2 LineCode=187 length=0.046 units=km 
New Line.it_32_1130_41212 phases=2 bus1=BT_19053_1.1.2 bus2=BT_82510_1.1.2 LineCode=187 length=0.112 units=km 
New Line.it_32_1130_41213 phases=2 bus1=BT_82510_1.1.2 bus2=BT_75545_1.1.2 LineCode=187 length=0.267 units=km 
New Line.it_32_1130_41751 phases=2 bus1=BT_19055_1.1.2 bus2=BT_19052_1.1.2 LineCode=187 length=0.062 units=km 
New Line.it_32_1130_41752 phases=2 bus1=BT_19052_1.1.2 bus2=BT_19053_1.1.2 LineCode=187 length=0.047 units=km 
New Line.it_32_1131_0 phases=2 bus1=BT_32_1131.1.2 bus2=BT_114371_1.1.2 LineCode=125 length=0.001 units=km 
New Line.it_32_1131_13251 phases=2 bus1=BT_114372_1.1.2 bus2=BT_95404_1.1.2 LineCode=187 length=0.047 units=km 
New Line.it_32_1131_13252 phases=2 bus1=BT_95404_1.1.2 bus2=BT_19056_1.1.2 LineCode=187 length=0.109 units=km 
New Line.it_32_1131_28484 phases=2 bus1=BT_114370_1.1.2 bus2=BT_114386_1.1.2 LineCode=187 length=0.059 units=km 
New Line.it_32_1131_29537 phases=2 bus1=BT_114371_1.1.2 bus2=BT_114370_1.1.2 LineCode=187 length=0.064 units=km 
New Line.it_32_1131_8264 phases=2 bus1=BT_114371_1.1.2 bus2=BT_114372_1.1.2 LineCode=187 length=0.062 units=km 
New Line.it_32_1132_0 phases=2 bus1=BT_32_1132.1.2 bus2=BT_99585_1.1.2 LineCode=232 length=0.001 units=km 
New Line.it_32_1132_13254 phases=2 bus1=BT_99585_1.1.2 bus2=BT_19059_1.1.2 LineCode=187 length=0.083 units=km 
New Line.it_32_1132_13255 phases=2 bus1=BT_99585_1.1.2 bus2=BT_19060_1.1.2 LineCode=187 length=0.077 units=km 
New Line.it_32_1132_13256 phases=2 bus1=BT_19060_1.1.2 bus2=BT_19061_2.1.2 LineCode=187 length=0.111 units=km 
New Line.it_32_1137_0 phases=2 bus1=BT_32_1137.1.2 bus2=BT_117797_1.1.2 LineCode=125 length=0.001 units=km 
New Line.it_32_1137_13257 phases=2 bus1=BT_117797_1.1.2 bus2=BT_17600_1.1.2 LineCode=187 length=0.068 units=km 
New Line.it_32_1137_13258 phases=2 bus1=BT_117797_1.1.2 bus2=BT_17599_1.1.2 LineCode=187 length=0.043 units=km 
New Line.it_32_1137_13262 phases=2 bus1=BT_17599_1.1.2 bus2=BT_17598_1.1.2 LineCode=187 length=0.073 units=km 
New Line.it_32_1151_0 phases=2 bus1=BT_32_1151.1.2 bus2=BT_19033_1.1.2 LineCode=125 length=0.001 units=km 
New Line.it_32_1151_13323 phases=2 bus1=BT_19033_1.1.2 bus2=BT_17636_1.1.2 LineCode=187 length=0.08 units=km 
New Line.it_32_1151_65649 phases=2 bus1=BT_19033_1.1.2 bus2=BT_48752_1.1.2 LineCode=187 length=0.082 units=km 
New Line.it_32_1151_65668 phases=2 bus1=BT_144300_1.1.2 bus2=BT_48753_1.1.2 LineCode=187 length=0.045 units=km 
New Line.it_32_1151_65669 phases=2 bus1=BT_48752_1.1.2 bus2=BT_144300_1.1.2 LineCode=187 length=0.038 units=km 
New Line.it_32_1152_0 phases=2 bus1=BT_32_1152.1.2 bus2=BT_114379_1.1.2 LineCode=125 length=0.001 units=km 
New Line.it_32_1156_0 phases=2 bus1=BT_32_1156.1.2 bus2=BT_67103_1.1.2 LineCode=125 length=0.001 units=km 
New Line.it_32_1156_41482 phases=2 bus1=BT_67103_1.1.2 bus2=BT_88015_1.1.2 LineCode=143 length=0.069 units=km 
New Line.it_32_1156_41483 phases=2 bus1=BT_88015_1.1.2 bus2=BT_19450_1.1.2 LineCode=143 length=0.062 units=km 
New Line.it_32_1156_41533 phases=2 bus1=BT_67103_1.1.2 bus2=BT_81772_1.1.2 LineCode=143 length=0.03 units=km 
New Line.it_32_1430_0 phases=2 bus1=BT_32_1430.1.2 bus2=BT_24263_1.1.2 LineCode=125 length=0.001 units=km 
New Line.it_32_1430_13646 phases=2 bus1=BT_24256_1.1.2 bus2=BT_24255_1.1.2 LineCode=187 length=0.088 units=km 
New Line.it_32_1430_13647 phases=2 bus1=BT_24257_1.1.2 bus2=BT_24256_1.1.2 LineCode=187 length=0.1 units=km 
New Line.it_32_1430_13648 phases=2 bus1=BT_24258_1.1.2 bus2=BT_24257_1.1.2 LineCode=187 length=0.097 units=km 
New Line.it_32_1430_13649 phases=1 bus1=BT_24255_1.1 bus2=BT_56796_1.1 LineCode=201 length=0.053 units=km 
New Line.it_32_1430_13650 phases=2 bus1=BT_24259_1.1.2 bus2=BT_24258_1.1.2 LineCode=187 length=0.08 units=km 
New Line.it_32_1430_13651 phases=1 bus1=BT_56796_1.1 bus2=BT_24254_1.1 LineCode=201 length=0.061 units=km 
New Line.it_32_1430_13652 phases=2 bus1=BT_24260_1.1.2 bus2=BT_24259_1.1.2 LineCode=187 length=0.053 units=km 
New Line.it_32_1430_13653 phases=1 bus1=BT_24254_1.1 bus2=BT_24253_2.1 LineCode=201 length=0.066 units=km 
New Line.it_32_1430_13654 phases=2 bus1=BT_24261_1.1.2 bus2=BT_24260_1.1.2 LineCode=187 length=0.075 units=km 
New Line.it_32_1430_13655 phases=2 bus1=BT_24262_1.1.2 bus2=BT_24261_1.1.2 LineCode=187 length=0.077 units=km 
New Line.it_32_1430_13656 phases=2 bus1=BT_24263_1.1.2 bus2=BT_24262_1.1.2 LineCode=187 length=0.091 units=km 
New Line.it_32_1435_0 phases=3 bus1=BT_32_1435 bus2=BT_15605_1 LineCode=185 length=0.001 units=km 
New Line.it_32_1435_15359 phases=3 bus1=BT_15603_1 bus2=BT_67820_1 LineCode=188 length=0.023 units=km 
New Line.it_32_1435_15360 phases=3 bus1=BT_15604_1 bus2=BT_15603_1 LineCode=188 length=0.036 units=km 
New Line.it_32_1435_15361 phases=3 bus1=BT_67820_1 bus2=BT_15598_1 LineCode=188 length=0.02 units=km 
New Line.it_32_1435_15362 phases=3 bus1=BT_67820_1 bus2=BT_15601_1 LineCode=188 length=0.018 units=km 
New Line.it_32_1435_15363 phases=3 bus1=BT_67820_1 bus2=BT_15600_1 LineCode=188 length=0.017 units=km 
New Line.it_32_1435_15364 phases=3 bus1=BT_15598_1 bus2=BT_15597_1 LineCode=188 length=0.04 units=km 
New Line.it_32_1435_15365 phases=3 bus1=BT_15601_1 bus2=BT_15602_1 LineCode=188 length=0.042 units=km 
New Line.it_32_1435_15421 phases=3 bus1=BT_15605_1 bus2=BT_15604_1 LineCode=188 length=0.041 units=km 
New Line.it_32_1435_15422 phases=3 bus1=BT_15605_1 bus2=BT_15606_1 LineCode=188 length=0.039 units=km 
New Line.it_32_1435_15424 phases=3 bus1=BT_15606_1 bus2=BT_15607_1 LineCode=188 length=0.035 units=km 
New Line.it_32_1435_15426 phases=3 bus1=BT_131844_1 bus2=BT_15609_1 LineCode=188 length=0.036 units=km 
New Line.it_32_1435_15427 phases=3 bus1=BT_15609_1 bus2=BT_16976_1 LineCode=188 length=0.081 units=km 
New Line.it_32_1435_53429 phases=3 bus1=BT_15607_1 bus2=BT_131844_1 LineCode=188 length=0.023 units=km 
New Line.it_32_1435_53430 phases=1 bus1=BT_131844_1.1 bus2=BT_131842_1.1 LineCode=214 length=0.008 units=km 
New Line.it_32_1435_53431 phases=1 bus1=BT_131844_1.1 bus2=BT_131843_1.1 LineCode=214 length=0.033 units=km 
New Line.it_32_1478_0 phases=2 bus1=BT_32_1478.1.2 bus2=BT_18780_1.1.2 LineCode=125 length=0.001 units=km 
New Line.it_32_1478_15428 phases=2 bus1=BT_18780_1.1.2 bus2=BT_18781_1.1.2 LineCode=187 length=0.075 units=km 
New Line.it_32_1478_15429 phases=2 bus1=BT_18780_1.1.2 bus2=BT_25861_1.1.2 LineCode=187 length=0.025 units=km 
New Line.it_32_1478_15430 phases=2 bus1=BT_25861_1.1.2 bus2=BT_18779_1.1.2 LineCode=187 length=0.043 units=km 
New Line.it_32_1478_15431 phases=2 bus1=BT_18781_1.1.2 bus2=BT_18782_1.1.2 LineCode=187 length=0.118 units=km 
New Line.it_32_1478_15432 phases=2 bus1=BT_18779_1.1.2 bus2=BT_25862_1.1.2 LineCode=187 length=0.079 units=km 
New Line.it_32_1478_15433 phases=2 bus1=BT_18782_1.1.2 bus2=BT_18783_1.1.2 LineCode=187 length=0.12 units=km 
New Line.it_32_1478_15434 phases=2 bus1=BT_25862_1.1.2 bus2=BT_25863_1.1.2 LineCode=187 length=0.131 units=km 
New Line.it_32_1478_15435 phases=2 bus1=BT_25863_1.1.2 bus2=BT_25864_1.1.2 LineCode=187 length=0.053 units=km 
New Line.it_32_1478_15436 phases=2 bus1=BT_18783_1.1.2 bus2=BT_18784_1.1.2 LineCode=187 length=0.159 units=km 
New Line.it_32_1663_0 phases=2 bus1=BT_32_1663.1.2 bus2=BT_14481_1.1.2 LineCode=125 length=0.001 units=km 
New Line.it_32_1663_15287 phases=2 bus1=BT_14481_1.1.2 bus2=BT_14480_1.1.2 LineCode=187 length=0.065 units=km 
New Line.it_32_1663_15288 phases=2 bus1=BT_14481_1.1.2 bus2=BT_14482_1.1.2 LineCode=187 length=0.091 units=km 
New Line.it_32_1663_15289 phases=2 bus1=BT_14480_1.1.2 bus2=BT_14479_1.1.2 LineCode=187 length=0.063 units=km 
New Line.it_32_1663_15293 phases=2 bus1=BT_14479_1.1.2 bus2=BT_48099_1.1.2 LineCode=187 length=0.157 units=km 
New Line.it_32_1663_51104 phases=2 bus1=BT_14482_1.1.2 bus2=BT_22899_1.1.2 LineCode=187 length=0.04 units=km 
New Line.it_32_1663_51105 phases=2 bus1=BT_22899_1.1.2 bus2=BT_22900_1.1.2 LineCode=187 length=0.069 units=km 
New Line.it_32_1663_51106 phases=2 bus1=BT_22900_1.1.2 bus2=BT_22901_1.1.2 LineCode=187 length=0.099 units=km 
New Line.it_32_1664_0 phases=2 bus1=BT_32_1664.1.2 bus2=BT_14491_1.1.2 LineCode=232 length=0.001 units=km 
New Line.it_32_1664_15296 phases=2 bus1=BT_14491_1.1.2 bus2=BT_14492_1.1.2 LineCode=187 length=0.045 units=km 
New Line.it_32_1664_26180 phases=1 bus1=BT_14490_1.1 bus2=BT_14489_1.1 LineCode=214 length=0.08 units=km 
New Line.it_32_1664_45988 phases=1 bus1=BT_14489_1.1 bus2=BT_14488_1.1 LineCode=214 length=0.073 units=km 
New Line.it_32_1664_8278 phases=1 bus1=BT_14491_1.1 bus2=BT_14490_1.1 LineCode=214 length=0.127 units=km 
New Line.it_32_1715_0 phases=2 bus1=BT_32_1715.1.2 bus2=BT_17000_1.1.2 LineCode=125 length=0.001 units=km 
New Line.it_32_1716_0 phases=3 bus1=BT_32_1716 bus2=BT_56854_1 LineCode=146 length=0.001 units=km 
New Line.it_32_1716_15685 phases=3 bus1=BT_56854_1 bus2=BT_16970_1 LineCode=188 length=0.034 units=km 
New Line.it_32_1716_15686 phases=3 bus1=BT_56854_1 bus2=BT_15620_1 LineCode=188 length=0.046 units=km 
New Line.it_32_1716_15687 phases=3 bus1=BT_16970_1 bus2=BT_16971_1 LineCode=188 length=0.07 units=km 
New Line.it_32_1716_15688 phases=3 bus1=BT_15620_1 bus2=BT_15619_1 LineCode=188 length=0.049 units=km 
New Line.it_32_1716_15689 phases=3 bus1=BT_15619_1 bus2=BT_15618_1 LineCode=188 length=0.035 units=km 
New Line.it_32_1716_15751 phases=3 bus1=BT_16971_1 bus2=BT_56847_1 LineCode=188 length=0.045 units=km 
New Line.it_32_1716_15752 phases=3 bus1=BT_15618_1 bus2=BT_15617_1 LineCode=188 length=0.033 units=km 
New Line.it_32_1716_15753 phases=3 bus1=BT_56847_1 bus2=BT_16972_1 LineCode=188 length=0.08 units=km 
New Line.it_32_1716_15754 phases=1 bus1=BT_16972_1.1 bus2=BT_16973_1.1 LineCode=201 length=0.11 units=km 
New Line.it_32_1716_15755 phases=3 bus1=BT_15617_1 bus2=BT_15616_1 LineCode=188 length=0.036 units=km 
New Line.it_32_1716_15756 phases=1 bus1=BT_16973_1.1 bus2=BT_16974_1.1 LineCode=201 length=0.063 units=km 
New Line.it_32_1716_15757 phases=1 bus1=BT_16974_1.1 bus2=BT_16975_1.1 LineCode=201 length=0.076 units=km 
New Line.it_32_1744_0 phases=2 bus1=BT_32_1744.1.2 bus2=BT_17191_1.1.2 LineCode=125 length=0.001 units=km 
New Line.it_32_1744_67501 phases=2 bus1=BT_110759_1.1.2 bus2=BT_59203_1.1.2 LineCode=151 length=0.027 units=km 
New Line.it_32_1744_67502 phases=2 bus1=BT_59203_1.1.2 bus2=BT_59219_1.1.2 LineCode=151 length=0.054 units=km 
New Line.it_32_1744_67507 phases=2 bus1=BT_17191_1.1.2 bus2=BT_110759_1.1.2 LineCode=151 length=0.02 units=km 
New Line.it_32_1744_67508 phases=2 bus1=BT_59219_1.1.2 bus2=BT_110761_1.1.2 LineCode=151 length=0.05 units=km 
New Line.it_32_1744_67509 phases=2 bus1=BT_110761_1.1.2 bus2=BT_110762_1.1.2 LineCode=151 length=0.056 units=km 
New Line.it_32_1757_0 phases=2 bus1=BT_32_1757.1.2 bus2=BT_112670_1.1.2 LineCode=125 length=0.001 units=km 
New Line.it_32_1757_15760 phases=2 bus1=BT_112681_1.1.2 bus2=BT_18771_1.1.2 LineCode=187 length=0.032 units=km 
New Line.it_32_1757_15761 phases=1 bus1=BT_18769_1.1 bus2=BT_18768_1.1 LineCode=194 length=0.051 units=km 
New Line.it_32_1757_15762 phases=2 bus1=BT_18771_1.1.2 bus2=BT_18772_2.1.2 LineCode=187 length=0.07 units=km 
New Line.it_32_1757_15763 phases=2 bus1=BT_18771_1.1.2 bus2=BT_25867_1.1.2 LineCode=143 length=0.04 units=km 
New Line.it_32_1757_15764 phases=2 bus1=BT_25867_1.1.2 bus2=BT_25868_1.1.2 LineCode=143 length=0.052 units=km 
New Line.it_32_1757_15765 phases=1 bus1=BT_18768_1.1 bus2=BT_18767_1.1 LineCode=194 length=0.093 units=km 
New Line.it_32_1757_29897 phases=2 bus1=BT_112670_1.1.2 bus2=BT_112636_1.1.2 LineCode=187 length=0.028 units=km 
New Line.it_32_1757_29902 phases=1 bus1=BT_18770_1.1 bus2=BT_18769_1.1 LineCode=220 length=0.047 units=km 
New Line.it_32_1757_29903 phases=2 bus1=BT_112636_1.1.2 bus2=BT_18770_1.1.2 LineCode=171 length=0.054 units=km 
New Line.it_32_1757_35927 phases=2 bus1=BT_112670_1.1.2 bus2=BT_69142_1.1.2 LineCode=187 length=0.028 units=km 
New Line.it_32_1757_37834 phases=2 bus1=BT_69142_1.1.2 bus2=BT_112681_1.1.2 LineCode=187 length=0.037 units=km 
New Line.it_32_1757_49893 phases=1 bus1=BT_18771_1.1 bus2=BT_107613_1.1 LineCode=214 length=0.037 units=km 
New Line.it_32_1760_0 phases=2 bus1=BT_32_1760.1.2 bus2=BT_65778_1.1.2 LineCode=232 length=0.001 units=km 
New Line.it_32_1887_0 phases=2 bus1=BT_32_1887.1.2 bus2=BT_40409_1.1.2 LineCode=125 length=0.001 units=km 
New Line.it_32_1887_15018 phases=2 bus1=BT_40409_1.1.2 bus2=BT_40410_1.1.2 LineCode=143 length=0.092 units=km 
New Line.it_32_1887_15019 phases=2 bus1=BT_40409_1.1.2 bus2=BT_56857_1.1.2 LineCode=143 length=0.089 units=km 
New Line.it_32_1887_15020 phases=2 bus1=BT_40410_1.1.2 bus2=BT_40411_1.1.2 LineCode=143 length=0.062 units=km 
New Line.it_32_1887_15079 phases=2 bus1=BT_40411_1.1.2 bus2=BT_40412_1.1.2 LineCode=143 length=0.062 units=km 
New Line.it_32_1887_39392 phases=2 bus1=BT_56857_1.1.2 bus2=BT_40408_1.1.2 LineCode=187 length=0.071 units=km 
New Line.it_32_1887_39737 phases=2 bus1=BT_40408_1.1.2 bus2=BT_40407_1.1.2 LineCode=187 length=0.064 units=km 
New Line.it_32_1887_39738 phases=2 bus1=BT_40407_1.1.2 bus2=BT_40406_1.1.2 LineCode=187 length=0.076 units=km 
New Line.it_32_1887_39739 phases=2 bus1=BT_40406_1.1.2 bus2=BT_40405_1.1.2 LineCode=187 length=0.069 units=km 
New Line.it_32_1903_0 phases=2 bus1=BT_32_1903.1.2 bus2=BT_19436_1.1.2 LineCode=232 length=0.001 units=km 
New Line.it_32_1932_0 phases=2 bus1=BT_32_1932.1.2 bus2=BT_29051_1.1.2 LineCode=232 length=0.001 units=km 
New Line.it_32_2029_0 phases=2 bus1=BT_32_2029.1.2 bus2=BT_18749_1.1.2 LineCode=232 length=0.001 units=km 
New Line.it_32_2029_15196 phases=2 bus1=BT_18748_1.1.2 bus2=BT_17032_1.1.2 LineCode=187 length=0.099 units=km 
New Line.it_32_2029_15198 phases=2 bus1=BT_18749_1.1.2 bus2=BT_18748_1.1.2 LineCode=187 length=0.062 units=km 
...
